118
mbuild_polymers/peg_modified/peg_modified-N=15.xyz - created by mBuild
C    0.918994   -0.059459    0.121704
C   -0.570637   -0.342368   -0.029387
O   -1.319505    0.792156    0.311555
H    1.224565    0.755539   -0.568123
H    1.500154   -0.973496   -0.122746
H   -0.852821   -1.174087    0.650100
H   -0.793614   -0.658977   -1.073556
C   -1.247607    1.455433   -0.501549
C   -2.625912    2.002986   -0.851300
O   -3.183871    2.661022    0.253172
H   -0.562719    2.287948   -0.234520
H   -0.828505    0.911624   -1.374241
H   -3.289467    1.159833   -1.137438
H   -2.551045    2.693926   -1.721499
C   -2.705064    3.595103    0.320115
C   -3.737004    4.696068    0.531873
O   -4.475892    4.454139    1.697937
H   -1.986532    3.577536    1.166790
H   -2.146340    3.781931   -0.621102
H   -4.431867    4.713609   -0.334120
H   -3.230540    5.686311    0.588105
C   -3.858246    4.721469    2.506201
C   -4.640354    5.569018    3.502109
O   -5.758808    4.865177    3.968863
H   -3.483949    3.800001    3.000422
H   -2.991879    5.299908    2.121776
H   -4.986492    6.495443    2.997123
H   -3.981705    5.863797    4.350365
C   -5.403302    4.166479    4.670062
C   -6.271274    4.196377    5.922098
O   -7.604573    3.910864    5.598086
H   -5.421585    3.152589    4.217129
H   -4.355776    4.422616    4.934731
H   -6.222485    5.209808    6.373390
H   -5.885539    3.466689    6.669771
C   -7.661241    2.871634    5.446324
C   -8.868576    2.302379    6.181277
O  -10.046331    2.914970    5.732040
H   -7.744636    2.665276    4.358245
H   -6.732463    2.400094    5.831017
H   -8.756722    2.497646    7.268681
H   -8.919595    1.199937    6.032048
C  -10.270636    2.486693    4.797958
C  -11.745963    2.110349    4.737616
O  -12.546684    3.241070    4.948571
H  -10.029341    3.214776    3.994759
H   -9.646836    1.578701    4.658704
H  -11.963274    1.365507    5.532017
H  -11.979472    1.643701    3.753765
C  -12.533611    3.790370    4.051719
C  -13.949011    4.214327    3.679203
O  -14.512143    4.987203    4.703769
H  -11.888650    4.685267    4.180715
H  -12.109065    3.154965    3.246121
H  -14.572612    3.307391    3.531978
H  -13.936052    4.783380    2.721988
C  -14.083916    5.944874    4.628058
C  -15.168839    7.010400    4.725330
O  -15.861267    6.892016    5.938061
H  -13.342739    6.079268    5.444177
H  -13.562156    6.030148    3.651604
H  -15.886915    6.874557    3.889268
H  -14.716394    8.023589    4.630511
C  -15.237537    7.297922    6.681328
C  -16.037796    8.232114    7.580625
O  -17.102633    7.542256    8.175947
H  -14.799702    6.472522    7.281720
H  -14.415157    7.862066    6.193067
H  -16.448091    9.062388    6.967936
H  -15.373566    8.672707    8.358396
C  -16.690203    6.964462    8.952025
C  -17.524118    7.120142   10.217811
O  -18.847970    6.725663    9.981190
H  -16.664879    5.898781    8.640354
H  -15.651578    7.307247    9.143662
H  -17.519014    8.186699   10.526870
H  -17.078543    6.519548   11.043039
C  -18.851368    5.673923    9.972504
C  -20.005041    5.149179   10.818404
O  -21.226562    5.634168   10.331721
H  -18.952831    5.317495    8.925547
H  -17.887884    5.307026   10.384880
H  -19.874578    5.495992   11.865203
H  -19.999245    4.035531   10.820527
C  -21.452245    5.071944    9.471946
C  -22.905675    4.616229    9.513540
O  -23.761479    5.722866    9.598059
H  -21.273398    5.695338    8.570364
H  -20.783356    4.186417    9.434591
H  -23.059900    3.976279   10.407836
H  -23.139784    4.008803    8.609949
C  -23.803113    6.145007    8.635611
C  -25.249343    6.441693    8.258437
O  -25.826143    7.317057    9.188614
H  -23.205198    7.080815    8.620900
H  -23.366257    5.428382    7.908580
H  -25.825772    5.492583    8.255978
H  -25.293823    6.875162    7.233558
C  -25.453583    8.276086    8.970198
C  -26.592549    9.288277    8.960678
O  -27.244147    9.300844   10.201424
H  -24.699014    8.557828    9.734856
H  -24.964076    8.254209    7.973769
H  -27.324524    9.003567    8.175669
H  -26.199397   10.300871    8.715045
C    1.144938    0.242974    1.168544
O   -0.036112    0.525882    1.884459
C   -0.702946    1.611284    1.275327
C   -1.985343    1.914963    2.045751
O   -2.838673    0.802457    2.041297
H    1.842088    1.110319    1.181199
H    1.660243   -0.608097    1.659180
H   -0.065252    2.524681    1.293451
H   -0.971617    1.373195    0.220327
H   -2.496059    2.797623    1.597818
H   -1.730826    2.166973    3.097208
H   -3.255411    0.767708    1.140775
H  -26.598850    9.856779   10.887984
